
  Mrv2311 05182422322D          

 39 44  0  0  0  0            999 V2000
   -4.5763    2.3779    0.0000 C   0  0  0  0  0  0  0  0  0  0  0  0
   -3.7754    2.1797    0.0000 O   0  0  0  0  0  0  0  0  0  0  0  0
   -3.5466    1.3871    0.0000 C   0  0  0  0  0  0  0  0  0  0  0  0
   -2.7457    1.1889    0.0000 C   0  0  0  0  0  0  0  0  0  0  0  0
   -2.5169    0.3963    0.0000 C   0  0  0  0  0  0  0  0  0  0  0  0
   -3.0890   -0.1982    0.0000 C   0  0  0  0  0  0  0  0  0  0  0  0
   -2.8602   -0.9908    0.0000 C   0  0  0  0  0  0  0  0  0  0  0  0
   -3.4322   -1.5853    0.0000 C   0  0  0  0  0  0  0  0  0  0  0  0
   -4.2331   -1.3871    0.0000 C   0  0  0  0  0  0  0  0  0  0  0  0
   -4.0042   -2.1798    0.0000 C   0  0  0  0  0  0  0  0  0  0  0  0
   -4.5763   -2.7742    0.0000 C   0  0  0  0  0  0  0  0  0  0  0  0
   -5.3771   -2.5761    0.0000 C   0  0  0  0  0  0  0  0  0  0  0  0
   -5.6059   -1.7834    0.0000 C   0  0  0  0  0  0  0  0  0  0  0  0
   -5.0339   -1.1890    0.0000 C   0  0  0  0  0  0  0  0  0  0  0  0
   -4.4619   -0.5945    0.0000 O   0  0  0  0  0  0  0  0  0  0  0  0
   -3.8898    0.0000    0.0000 C   0  0  0  0  0  0  0  0  0  0  0  0
   -4.1186    0.7926    0.0000 C   0  0  0  0  0  0  0  0  0  0  0  0
   -2.0593   -1.1890    0.0000 N   0  0  0  0  0  0  0  0  0  0  0  0
   -1.4873   -0.5945    0.0000 N   0  0  0  0  0  0  0  0  0  0  0  0
   -0.6865   -0.7926    0.0000 C   0  0  0  0  0  0  0  0  0  0  0  0
   -0.1144   -0.1982    0.0000 C   0  0  0  0  0  0  0  0  0  0  0  0
    0.6865   -0.3963    0.0000 O   0  0  0  0  0  0  0  0  0  0  0  0
    1.2585    0.1982    0.0000 C   0  0  0  0  0  0  0  0  0  0  0  0
    1.0296    0.9907    0.0000 C   0  0  0  0  0  0  0  0  0  0  0  0
    1.6017    1.5852    0.0000 C   0  0  0  0  0  0  0  0  0  0  0  0
    2.4026    1.3871    0.0000 C   0  0  0  0  0  0  0  0  0  0  0  0
    2.9746    1.9816    0.0000 C   0  0  0  0  0  0  0  0  0  0  0  0
    3.7754    1.7834    0.0000 C   0  0  0  0  0  0  0  0  0  0  0  0
    4.0042    0.9907    0.0000 C   0  0  0  0  0  0  0  0  0  0  0  0
    4.5763    1.5852    0.0000 C   0  0  0  0  0  0  0  0  0  0  0  0
    5.3771    1.3871    0.0000 C   0  0  0  0  0  0  0  0  0  0  0  0
    5.6059    0.5945    0.0000 C   0  0  0  0  0  0  0  0  0  0  0  0
    5.0339    0.0000    0.0000 C   0  0  0  0  0  0  0  0  0  0  0  0
    4.2331    0.1982    0.0000 C   0  0  0  0  0  0  0  0  0  0  0  0
    3.4322    0.3963    0.0000 O   0  0  0  0  0  0  0  0  0  0  0  0
    2.6314    0.5945    0.0000 C   0  0  0  0  0  0  0  0  0  0  0  0
    2.0593    0.0000    0.0000 C   0  0  0  0  0  0  0  0  0  0  0  0
    2.7457    2.7742    0.0000 O   0  0  0  0  0  0  0  0  0  0  0  0
   -0.4576   -1.5853    0.0000 O   0  0  0  0  0  0  0  0  0  0  0  0
  1  2  1  0  0  0  0
  2  3  1  0  0  0  0
  3  4  2  0  0  0  0
  4  5  1  0  0  0  0
  5  6  2  0  0  0  0
  6  7  1  0  0  0  0
  7  8  1  0  0  0  0
  8  9  1  0  0  0  0
  9 10  1  0  0  0  0
 10 11  1  0  0  0  0
 11 12  1  0  0  0  0
 12 13  1  0  0  0  0
 13 14  1  0  0  0  0
  9 14  1  0  0  0  0
  9 15  1  0  0  0  0
 15 16  1  0  0  0  0
  6 16  1  0  0  0  0
 16 17  2  0  0  0  0
  3 17  1  0  0  0  0
  7 18  2  0  0  0  0
 18 19  1  4  0  0  0
 19 20  1  0  0  0  0
 20 21  1  0  0  0  0
 21 22  1  0  0  0  0
 22 23  1  0  0  0  0
 23 24  2  0  0  0  0
 24 25  1  0  0  0  0
 25 26  2  0  0  0  0
 26 27  1  0  0  0  0
 27 28  1  0  0  0  0
 28 29  1  0  0  0  0
 29 30  1  0  0  0  0
 30 31  1  0  0  0  0
 31 32  1  0  0  0  0
 32 33  1  0  0  0  0
 33 34  1  0  0  0  0
 29 34  1  0  0  0  0
 29 35  1  0  0  0  0
 35 36  1  0  0  0  0
 26 36  1  0  0  0  0
 36 37  2  0  0  0  0
 23 37  1  0  0  0  0
 27 38  2  0  0  0  0
 20 39  2  0  0  0  0
M  END
$$$$
