
  Mrv2311 05182422272D          

 25 28  0  0  0  0            999 V2000
   -2.2322   -2.1018    0.0000 O   0  0  0  0  0  0  0  0  0  0  0  0
   -1.6601   -1.5073    0.0000 C   0  0  0  0  0  0  0  0  0  0  0  0
   -1.8889   -0.7147    0.0000 C   0  0  0  0  0  0  0  0  0  0  0  0
   -1.3169   -0.1202    0.0000 C   0  0  0  0  0  0  0  0  0  0  0  0
   -0.5161   -0.3184    0.0000 C   0  0  0  0  0  0  0  0  0  0  0  0
    0.0560    0.2761    0.0000 C   0  0  0  0  0  0  0  0  0  0  0  0
    0.8568    0.0779    0.0000 C   0  0  0  0  0  0  0  0  0  0  0  0
    1.0856   -0.7147    0.0000 C   0  0  0  0  0  0  0  0  0  0  0  0
    1.6577   -0.1202    0.0000 C   0  0  0  0  0  0  0  0  0  0  0  0
    2.4586   -0.3184    0.0000 C   0  0  0  0  0  0  0  0  0  0  0  0
    2.6874   -1.1110    0.0000 C   0  0  0  0  0  0  0  0  0  0  0  0
    2.1153   -1.7054    0.0000 C   0  0  0  0  0  0  0  0  0  0  0  0
    1.3145   -1.5073    0.0000 C   0  0  0  0  0  0  0  0  0  0  0  0
    0.5136   -1.3092    0.0000 O   0  0  0  0  0  0  0  0  0  0  0  0
   -0.2873   -1.1110    0.0000 C   0  0  0  0  0  0  0  0  0  0  0  0
   -0.8593   -1.7054    0.0000 C   0  0  0  0  0  0  0  0  0  0  0  0
   -0.6305   -2.4981    0.0000 N   0  0  0  0  0  0  0  0  0  0  0  0
    0.1704   -2.6963    0.0000 N   0  0  0  0  0  0  0  0  0  0  0  0
    0.3992   -3.4889    0.0000 C   0  0  0  0  0  0  0  0  0  0  0  0
    1.2001   -3.6871    0.0000 C   0  0  0  0  0  0  0  0  0  0  0  0
    1.4289   -4.4797    0.0000 C   0  0  0  0  0  0  0  0  0  0  0  0
    0.8568   -5.0742    0.0000 C   0  0  0  0  0  0  0  0  0  0  0  0
    0.0560   -4.8760    0.0000 C   0  0  0  0  0  0  0  0  0  0  0  0
   -0.1728   -4.0834    0.0000 C   0  0  0  0  0  0  0  0  0  0  0  0
   -0.1728    1.0688    0.0000 O   0  0  0  0  0  0  0  0  0  0  0  0
  1  2  1  0  0  0  0
  2  3  2  0  0  0  0
  3  4  1  0  0  0  0
  4  5  2  0  0  0  0
  5  6  1  0  0  0  0
  6  7  1  0  0  0  0
  7  8  1  0  0  0  0
  8  9  1  0  0  0  0
  9 10  1  0  0  0  0
 10 11  1  0  0  0  0
 11 12  1  0  0  0  0
 12 13  1  0  0  0  0
  8 13  1  0  0  0  0
  8 14  1  0  0  0  0
 14 15  1  0  0  0  0
  5 15  1  0  0  0  0
 15 16  2  0  0  0  0
  2 16  1  0  0  0  0
 17 16  1  0  0  0  0
 17 18  2  0  0  0  0
 18 19  1  0  0  0  0
 19 20  2  0  0  0  0
 20 21  1  0  0  0  0
 21 22  2  0  0  0  0
 22 23  1  0  0  0  0
 23 24  2  0  0  0  0
 19 24  1  0  0  0  0
  6 25  2  0  0  0  0
M  END
$$$$
