
  Mrv2311 05182422342D          

 33 37  0  0  0  0            999 V2000
   -2.2516   -0.6211    0.0000 N   0  0  0  0  0  0  0  0  0  0  0  0
   -2.3106    0.2019    0.0000 C   0  0  0  0  0  0  0  0  0  0  0  0
   -3.0110    0.6378    0.0000 N   0  0  0  0  0  0  0  0  0  0  0  0
   -2.8129    1.4387    0.0000 N   0  0  0  0  0  0  0  0  0  0  0  0
   -1.9900    1.4976    0.0000 C   0  0  0  0  0  0  0  0  0  0  0  0
   -1.6796    0.7333    0.0000 C   0  0  0  0  0  0  0  0  0  0  0  0
   -0.8787    0.5351    0.0000 C   0  0  0  0  0  0  0  0  0  0  0  0
   -0.3067    1.1296    0.0000 O   0  0  0  0  0  0  0  0  0  0  0  0
   -0.6499   -0.2575    0.0000 N   0  0  0  0  0  0  0  0  0  0  0  0
    0.1509   -0.4557    0.0000 N   0  0  0  0  0  0  0  0  0  0  0  0
    0.3797   -1.2483    0.0000 C   0  0  0  0  0  0  0  0  0  0  0  0
    1.1806   -1.4465    0.0000 C   0  0  0  0  0  0  0  0  0  0  0  0
    1.4094   -2.2391    0.0000 C   0  0  0  0  0  0  0  0  0  0  0  0
    1.9814   -1.6446    0.0000 C   0  0  0  0  0  0  0  0  0  0  0  0
    2.7823   -1.8428    0.0000 C   0  0  0  0  0  0  0  0  0  0  0  0
    3.0111   -2.6354    0.0000 C   0  0  0  0  0  0  0  0  0  0  0  0
    2.4391   -3.2299    0.0000 C   0  0  0  0  0  0  0  0  0  0  0  0
    1.6382   -3.0317    0.0000 C   0  0  0  0  0  0  0  0  0  0  0  0
    0.8374   -2.8336    0.0000 O   0  0  0  0  0  0  0  0  0  0  0  0
    0.0365   -2.6354    0.0000 C   0  0  0  0  0  0  0  0  0  0  0  0
   -0.5356   -3.2299    0.0000 C   0  0  0  0  0  0  0  0  0  0  0  0
   -1.3364   -3.0317    0.0000 C   0  0  0  0  0  0  0  0  0  0  0  0
   -1.5652   -2.2391    0.0000 C   0  0  0  0  0  0  0  0  0  0  0  0
   -0.9932   -1.6446    0.0000 C   0  0  0  0  0  0  0  0  0  0  0  0
   -0.1923   -1.8428    0.0000 C   0  0  0  0  0  0  0  0  0  0  0  0
   -1.9084   -3.6262    0.0000 O   0  0  0  0  0  0  0  0  0  0  0  0
   -2.7093   -3.4280    0.0000 C   0  0  0  0  0  0  0  0  0  0  0  0
   -1.5541    2.1981    0.0000 C   0  0  0  0  0  0  0  0  0  0  0  0
   -1.9427    2.9258    0.0000 C   0  0  0  0  0  0  0  0  0  0  0  0
   -1.5068    3.6262    0.0000 C   0  0  0  0  0  0  0  0  0  0  0  0
   -0.6822    3.5989    0.0000 C   0  0  0  0  0  0  0  0  0  0  0  0
   -0.2936    2.8712    0.0000 C   0  0  0  0  0  0  0  0  0  0  0  0
   -0.7295    2.1708    0.0000 C   0  0  0  0  0  0  0  0  0  0  0  0
  1  2  1  0  0  0  0
  2  3  2  0  0  0  0
  3  4  1  0  0  0  0
  4  5  1  0  0  0  0
  5  6  2  0  0  0  0
  2  6  1  0  0  0  0
  6  7  1  0  0  0  0
  7  8  2  0  0  0  0
  7  9  1  0  0  0  0
 10  9  1  4  0  0  0
 10 11  2  0  0  0  0
 11 12  1  0  0  0  0
 12 13  1  0  0  0  0
 13 14  1  0  0  0  0
 14 15  1  0  0  0  0
 15 16  1  0  0  0  0
 16 17  1  0  0  0  0
 17 18  1  0  0  0  0
 13 18  1  0  0  0  0
 13 19  1  0  0  0  0
 19 20  1  0  0  0  0
 20 21  2  0  0  0  0
 21 22  1  0  0  0  0
 22 23  2  0  0  0  0
 23 24  1  0  0  0  0
 24 25  2  0  0  0  0
 11 25  1  0  0  0  0
 20 25  1  0  0  0  0
 22 26  1  0  0  0  0
 26 27  1  0  0  0  0
  5 28  1  0  0  0  0
 28 29  2  0  0  0  0
 29 30  1  0  0  0  0
 30 31  2  0  0  0  0
 31 32  1  0  0  0  0
 32 33  2  0  0  0  0
 28 33  1  0  0  0  0
M  END
$$$$
